26
XYZ File written by NoSpherA2 based on "thpp_p2.xyz"
F    -1.1838398    -6.2146645     2.3083595
F   -0.90973253    -4.5926967    0.12188311
N    -2.4966062    -9.7571377    -0.7418008
N    -1.5212725    -6.2729932    -1.2598089
C    -2.0780565    -8.4924007   -0.41105162
C    -1.8854361    -7.5313027    -1.4852061
N    -2.0643088    -7.9069415    -2.7752767
C    -1.3017394    -5.8648523  -0.022715729
C    -1.8234513    -8.0145772    0.88236409
C    -1.4372541    -6.6637317     1.0665404
C    -1.8272495    -8.7893934     2.0791115
C    -1.8118911    -6.9408006    -3.8324624
H   -0.81010327    -6.5572024    -3.7365328
H    -1.9226222    -7.4199669    -4.7906207
H     -2.516014    -6.1297193     -3.753171
N    -1.7719162    -9.3124283     3.1087583
C    -2.7426775    -10.774684    0.26052102
H    -3.3517819    -10.363307     1.0477249
H    -3.2545657    -11.607493   -0.19150756
H    -1.8045449    -11.109395    0.67016064
C    -2.0101468    -9.2628736    -3.0804415
H    -2.4301993    -9.4147151    -4.0758214
H   -0.96464787    -9.5730408    -3.1122103
C    -2.7381085    -10.134336    -2.1164914
H    -2.4251132    -11.169098    -2.2634048
H    -3.8083579    -10.076473    -2.3202044
