45
Exported from Olex2
O  -3.1652665836 8.1559198294 9.2886990875
O  -4.2999884413 6.8777689098 11.4502575429
H  -4.4377323985 7.8731654602 11.7233767365
O  -3.1918624343 4.5354952081 8.9846687293
H  -2.6891141550 4.0312993387 8.8683284216
O  -0.3992225368 5.1116443023 8.5627101611
H  0.0224359389 4.9726219505 7.8679499798
O  0.1440574028 7.8326972222 7.7166758218
H  0.7266983299 8.3158740284 8.1016891967
O  -3.1675949305 10.8105141345 7.5396776467
O  -5.5950173319 9.5569581353 8.7506119320
H  -4.8324354096 9.2571094242 8.9276101071
O  -5.7447056820 10.7836515973 5.0613856148
H  -6.4495366256 10.4224028010 5.1436389534
O  -3.3347404892 8.8646372892 4.5063608349
H  -3.6124564165 8.2078133673 4.8535821353
O  -0.3554533751 9.5786749268 5.6070947013
H  -0.1949345503 9.0103752753 6.0571062099
O  -2.4828007455 8.6077860808 7.1043806993
C  -3.6839763320 6.8192469536 9.0963511903
H  -4.0918020568 6.6966212155 8.2187705254
C  -4.7947164874 6.6562401936 10.1324045035
H  -5.5709247919 7.3080055858 9.9025821123
H  -5.1061954480 5.7133476932 10.0630661036
C  -2.5821920147 5.7844287577 9.2514363138
H  -2.2372477869 5.7937608729 10.1071039270
C  -1.4136375830 6.0895976467 8.3165853064
H  -1.6937677175 5.9860722190 7.4090462184
C  -0.9318403736 7.4902870885 8.6026194387
H  -0.6046434787 7.5253479325 9.5076178830
C  -2.0614709821 8.5142032807 8.4698708073
H  -1.7976668368 9.3429299977 8.7837461597
C  -2.5373200833 9.9556226085 6.6072614228
C  -1.1339643167 10.4947048899 6.3817792978
H  -1.2105938782 11.3798603784 5.9168415077
H  -0.7384957629 10.6623340996 7.2448571218
C  -3.4589573986 9.9690538771 5.3694386588
H  -3.2170867276 10.7307986831 4.8715783612
C  -4.8352805288 10.1779362689 5.9826865226
H  -5.1734556617 9.3625536045 6.2833293560
C  -4.5399617377 11.0971932251 7.1554052928
H  -4.5920517680 12.0093856829 6.8860970647
C  -5.4477017604 10.9197086041 8.3577649058
H  -5.1001261444 11.5095506150 9.1359428873
H  -6.3639023914 11.2357794968 8.1239198287
