14
Exported from Olex2
S     0.6161    3.3783    6.2681
O    -1.2454    4.1702    3.1041
O    -1.1228    5.8593    4.5544
N     1.5426    6.0001    4.4917
C     0.9081    4.8113    3.8677
C    -0.6174    4.9592    3.8329
C     1.3176    3.5355    4.5970
H     1.2599    4.7361    2.8737
H     2.3979    3.5120    4.7118
H     0.9787    2.7033    4.0112
H    -0.5092    2.9064    5.9091
H     1.2781    6.8371    4.0035
H     1.2907    6.0692    5.4587
H     2.5471    5.9386    4.4363
