45
Exported from Olex2
O  3.9264814245 4.9403840348 3.4777662997
O  4.6161213776 7.1356621327 3.0496605447
O  1.3026595206 4.1643283821 2.8630350764
H  0.6475220369 4.7725074506 2.4015517561
O  4.7829056235 5.1914252188 6.0735428226
H  5.1017722475 4.4264631596 5.6467775921
O  4.6081025786 4.4833686716 1.3012453817
O  1.7993862125 5.9081545706 4.9723393295
H  1.6566846670 5.1649126954 4.4125482315
O  5.7504814387 3.2131689804 -0.8604531763
H  5.8415994021 4.2445822937 -1.0810579245
O  7.0318700630 5.8891510041 1.8364665994
H  6.0784610164 5.5393015457 1.5591632699
O  7.1940287457 7.1070402338 5.5189803725
H  8.0419148287 6.6210587492 5.4539256573
O  1.8422954185 1.4413309074 2.0304988684
H  1.3231822629 1.2922790336 2.8526012801
O  4.6295152726 0.8605825848 1.6017087331
H  4.0133900138 0.1629750211 1.8008220266
C  5.9827392547 7.4286299621 3.4270239912
H  6.0000548012 8.4750130239 3.7268182451
C  6.2373894299 2.9892670118 0.4548572358
H  6.5975293711 1.9766487569 0.5202316760
H  7.0954271478 3.7530892619 0.6823687540
C  3.9871086077 6.2834691111 3.9768587876
C  2.3720490035 3.8246581089 1.9861669859
H  2.0432221346 3.8540251158 0.9406873677
C  3.5130728390 4.8431621755 2.1194753750
H  3.2189316566 5.8190195026 1.7558455940
C  6.2837146882 6.5102857202 4.6065697888
H  6.6827688290 5.5586272135 4.2506081921
C  2.8626392519 2.4130855629 2.2721965142
H  3.2143204529 2.2975409001 3.3087888337
C  5.1330664415 3.1536918371 1.4928602971
H  5.5823093809 3.0221748297 2.5207088136
C  4.0280159872 2.1102194974 1.3322568029
H  3.6365836325 2.1306110164 0.3105241652
C  4.9034136659 6.2965639006 5.2173481965
H  4.6377576561 7.1721703720 5.7937035551
C  2.5771430493 6.8203968562 4.2028251886
H  2.1121150610 7.0115142614 3.2591908430
H  2.6411643560 7.7826632184 4.7229978031
C  6.8960991625 7.2487982838 2.2295771933
H  7.9112631980 7.6117395325 2.5210261827
H  6.5353898929 7.8654710275 1.3976481262
