26
Exported from Olex2
F  -1.1851829443 -6.2151746070 2.3084275989
F  -0.9102398244 -4.5921137430 0.1214552454
N  -2.4955366782 -9.7560008130 -0.7421508671
N  -1.5213209535 -6.2740572030 -1.2591865276
C  -2.0791939712 -8.4919197360 -0.4114308594
C  -1.8852011660 -7.5325998180 -1.4851769121
N  -2.0654366158 -7.9058630070 -2.7752863925
C  -1.3023487355 -5.8659600030 -0.0239215295
C  -1.8244733510 -8.0141545140 0.8821793326
C  -1.4380017386 -6.6632070330 1.0678142914
C  -1.8284495758 -8.7888104490 2.0800061645
C  -1.8142111445 -6.9392556390 -3.8310426771
H  -0.8038641053 -6.5761948800 -3.7515959714
H  -1.9520531263 -7.4103164070 -4.7891680039
H  -2.5007446335 -6.1156280400 -3.7340924132
C  -2.5178380109 -9.2429643330 -3.1177726810
H  -3.6145470658 -9.2501060340 -3.2029566642
H  -2.0974445111 -9.5359198230 -4.0911650002
N  -1.7726178060 -9.3117578610 3.1077567560
C  -2.0854999836 -10.2349320270 -2.0598770726
H  -0.9925826894 -10.3553207010 -2.0879800077
H  -2.5448241764 -11.2143653070 -2.2589314260
C  -2.7423465972 -10.7731830840 0.2587609352
H  -3.3434098315 -10.3621709040 1.0453513917
H  -3.2577044934 -11.5987054200 -0.1905943003
H  -1.8085345552 -11.1119037600 0.6622179514

