26
Exported from Olex2
F  2.22075220 8.35997557 7.17050647
F  2.49574967 9.98297432 4.98347028
N  0.90995713 4.81846959 4.11978677
N  1.88405756 8.30104301 3.60288930
C  1.32632995 6.08303739 4.45060329
C  1.52068964 7.04243121 3.37714345
N  1.34043070 6.66876717 2.08666601
C  1.58152738 6.56070679 5.74391982
C  2.10325626 8.70898277 4.83838739
C  1.96772449 7.91134817 5.92931303
C  1.57703864 5.78571066 6.94239175
C  0.88830177 5.33141390 1.74588752
H  -0.20840708 5.32434551 1.66115426
H  1.30803378 5.03815903 0.77232365
C  1.59217191 7.63450302 1.03108404
H  0.93521757 8.49139806 1.11333880
H  2.58716073 8.02982238 1.10687450
H  1.46071325 7.17101568 0.08301515
N  1.63334499 5.26326622 7.96971092
C  1.32015636 4.33957715 2.80203050
H  2.41313736 4.21873319 2.77393665
H  0.86055700 3.36029165 2.60261049
C  0.66422988 3.80198224 5.12166926
H  1.57184176 3.43238837 5.56214319
H  0.04685129 4.21224052 5.91377674
H  0.14308832 3.00097290 4.65382325
