45
Exported from Olex2
O     2.7062    5.1608    8.7710
O     3.3957    7.3561    8.3422
O     3.3880    4.7049    6.5941
O     3.5627    5.4128   11.3681
H     3.8886    4.6427   10.9532
O     0.0828    4.3835    8.1577
H    -0.5980    5.0060    7.6923
O     5.9726    7.3285   10.8117
H     6.8277    6.8649   10.7566
O     0.5795    6.1297   10.2676
H     0.4465    5.4043    9.7179
O     5.8152    6.1095    7.1303
H     4.8876    5.7851    6.8497
O     4.5299    3.4312    4.4329
H     4.6284    4.4801    4.1694
O     0.6235    1.6619    7.3220
H     0.0975    1.4966    8.0850
O     3.4113    1.0829    6.8943
H     2.7688    0.4202    7.0293
C     2.2929    5.0643    7.4132
H     1.9940    6.0296    7.0523
C     5.0635    6.7314    9.9007
H     5.4465    5.7790    9.5529
C     3.6829    6.5167   10.5104
H     3.4135    7.3991   11.0974
C     2.7673    6.5041    9.2697
C     1.1511    4.0446    7.2799
H     0.8159    4.0749    6.2341
C     4.7619    7.6491    8.7199
H     4.7830    8.7021    9.0211
C     3.9123    3.3742    6.7836
H     4.3683    3.2567    7.8060
C     2.8081    2.3301    6.6259
H     2.4171    2.3433    5.6092
C     1.6400    2.6343    7.5638
H     1.9889    2.5202    8.5912
C     1.3563    7.0402    9.4961
H     0.8910    7.2613    8.5311
H     1.4240    8.0135   10.0193
C     5.0153    3.2080    5.7461
H     5.3884    2.1659    5.8110
H     5.8753    3.9728    5.9778
C     5.6750    7.4667    7.5231
H     6.6890    7.8390    7.8046
H     5.3221    8.0837    6.6906
