13
Exported from Olex2
C  3.7397119800 5.7537920000 4.1563691300
H  3.8045132700 5.4930881600 3.1025847200
C  2.3162262700 6.2712766400 4.4056752100
O  2.1726673800 7.2931096800 5.1061124200
O  1.3841648200 5.6026955200 3.8746728900
N  4.7292780600 6.8269217600 4.4460402200
C  4.0348213400 4.5312300800 5.0204748000
H  5.0057983100 4.1074823200 4.7884680100
H  3.2938049800 3.7638002400 4.8424516100
H  4.0172167000 4.7934199200 6.0743819000
H  4.6213917300 7.1640654400 5.4015499400
H  4.5693885500 7.6051696800 3.7939428700
H  5.6747746300 6.4667748000 4.3076459000
