45
Exported from Olex2
O  3.9264588505 4.9406119680 3.4778148667
O  4.6161952469 7.1356642560 3.0497174838
O  1.3026369072 4.1644767840 2.8631923629
H  0.6350835864 4.7878095360 2.3879873303
O  4.7831072838 5.1906602400 6.0732875754
H  5.1130922509 4.4073733440 5.6247592343
O  4.6081188143 4.4835129120 1.3013355905
O  1.7992665469 5.9081862720 4.9721330312
H  1.6709459728 5.1568204320 4.4030302788
O  5.7505474982 3.2135607360 -0.8603233014
H  5.8492339605 4.2647751840 -1.0867575996
O  7.0316773832 5.8891731840 1.8365631791
H  6.0733399071 5.5439722560 1.5616450526
O  7.1941796770 7.1069701920 5.5187934875
H  8.0593503989 6.6065247840 5.4561244344
O  1.8419079621 1.4413316160 2.0308160717
H  1.3149482190 1.2937621440 2.8708142748
O  4.6296913413 0.8606474880 1.6018718097
H  4.0097611503 0.1610879520 1.8077692898
C  5.9826028926 7.4287100160 3.4271079808
H  5.9979392308 8.4848957760 3.7263738813
C  6.2373082201 2.9895028320 0.4546682145
H  6.5969340530 1.9735236480 0.5228419818
H  7.0893232308 3.7490669760 0.6826904111
C  3.9869914334 6.2837383680 3.9768383739
C  2.3721279573 3.8246832480 1.9864607790
H  2.0422157764 3.8576508960 0.9395064969
C  3.5129257991 4.8430172640 2.1196325168
H  3.2104956746 5.8241100480 1.7494404921
C  6.2835414648 6.5103255360 4.6068105612
H  6.6798602349 5.5534788000 4.2518623602
C  2.8624201440 2.4129178560 2.2723883337
H  3.2100687071 2.2941296640 3.3148965006
C  5.1331620968 3.1536433440 1.4928361261
H  5.5852896080 3.0235170720 2.5271930817
C  4.0281685038 2.1102783360 1.3321408176
H  3.6403667211 2.1271982400 0.3137687050
C  4.9033538634 6.2961230400 5.2173045294
H  4.6389604713 7.1776151520 5.7892654987
C  2.5768616061 6.8199423360 4.2027433727
H  2.1110187794 7.0132129920 3.2443938159
H  2.6439443499 7.7825453280 4.7178575827
C  6.8959740192 7.2488706240 2.2296209394
H  7.9145484772 7.6175326560 2.5190418704
H  6.5304667365 7.8674937120 1.3947040108
