45
Exported from Olex2
O  2.7062066022 5.1534190080 8.7708092152
O  3.3877888390 4.6964071680 6.5943299391
O  3.3956320906 7.3487329440 8.3427118323
O  3.5624998216 5.4046010880 11.3668112234
H  3.8828084628 4.6377108000 10.9484529501
O  0.0823313386 4.3771966080 8.1560808516
H  -0.5770748460 4.9813418400 7.6981309806
O  0.5790965328 6.1209933120 10.2654449594
H  0.4370375020 5.3829715200 9.7141266681
O  5.9734655740 7.3203005280 10.8121054157
H  6.8212018073 6.8475898080 10.7532473186
O  5.8117604496 6.1020674400 7.1294516678
H  4.8605099906 5.7511974720 6.8463823300
O  4.5301642025 3.4264549920 4.4325651873
H  4.6191313872 4.4621449920 4.2004144551
O  0.6221464825 1.6543130880 7.3237045603
H  0.1051203143 1.4933995680 8.1425307861
O  3.4088371765 1.0733673120 6.8944427187
H  2.7965178536 0.3600276480 7.1017163774
C  2.2924891831 5.0563476000 7.4124151456
H  1.9953073324 6.0341261760 7.0450813378
C  3.6830482948 6.5095405920 10.5101930181
H  3.4178423410 7.3866719040 11.0833184461
C  2.7667925056 6.4965454080 9.2699385823
C  5.0633913501 6.7231325760 9.8996990499
H  5.4584755027 5.7675940800 9.5453860082
C  2.8075565344 2.3230853760 6.6253468860
H  2.4182411150 2.3387842560 5.6007290400
C  1.1516868341 4.0374902880 7.2789258282
H  0.8181297325 4.0660971360 6.2289016093
C  1.6422456228 2.6262481920 7.5653826823
H  1.9958494851 2.5100764800 8.6039740334
C  4.7625838254 7.6419531360 8.7201023294
H  4.7833186182 8.6929059360 9.0182037711
C  1.3568669454 7.0337959680 9.4956318613
H  0.8938970426 7.2267177600 8.5443749170
H  1.4204944096 7.9985793600 10.0119105301
C  3.9130454031 3.3665376000 6.7862539142
H  4.3596264882 3.2349286560 7.8150002958
C  5.0169294317 3.2023098720 5.7478742829
H  5.3798163960 2.1838886400 5.8103316162
H  5.8780167314 3.9632694720 5.9780136772
C  5.6758483112 7.4620265280 7.5224035682
H  6.6960783382 7.8271999200 7.8171174935
H  5.3119244823 8.0799518880 6.6876983594
